%chk=Optimization.chk
%mem=48GB
%NProcShared=28
#P PBE1PBE/6-31+G* Opt SCF=(MaxCycle=1)

H10 C4 O2

0 1
O -1.678000 -0.723000 0.319000
C -2.188000 -1.963000 0.789000
C -0.258000 -0.683000 0.309000
C 0.152000 0.687000 -0.221000
O 1.572000 0.727000 -0.231000
C 2.092000 1.957000 -0.701000
H -1.482000 -1.948000 1.593000
H -1.768000 -2.882000 0.437000
H 0.142000 -1.473000 -0.351000
H 0.142000 -0.833000 1.319000
H -0.248000 1.477000 0.439000
H -0.248000 0.837000 -1.231000
H 1.751000 2.752000 -0.072000
H 1.757000 2.126000 -1.703000
H 3.161000 1.922000 -0.684000
H -2.894000 -1.978000 -0.015000



