%chk=Optimization.chk
%mem=100GB
%NProcShared=28
#P B3LYP/6-311++G** Opt=(MaxCycless=100) SCF SCRF=(PCM, Solvent=TetraHydroFuran)

H24 O12

0 1
O -0.535940 2.412480 0.000000
H 0.434060 2.412480 0.000000
H -0.859270 1.623360 -0.462230
O -0.477040 0.515290 0.000000
H 0.492960 0.515290 0.000000
H -0.800370 -0.331850 0.344550
O 1.941420 1.473710 -0.115560
H 2.911420 1.473710 -0.115560
H 1.618090 0.650870 -0.514660
O 1.506410 -2.739190 -0.033320
H 2.476410 -2.739190 -0.033320
H 1.183080 -2.953640 0.855710
O -2.481410 -1.412410 -0.089680
H -1.511410 -1.412410 -0.089680
H -2.804740 -1.796910 0.740090
O 0.267510 -1.375730 -0.089680
H 1.237510 -1.375730 -0.089680
H -0.055820 -1.963460 -0.790340
O 2.079230 3.193980 0.024790
H 3.049230 3.193980 0.024790
H 1.755900 3.501110 -0.836620
O -2.729610 0.744610 0.024790
H -1.759610 0.744610 0.024790
H -3.052940 0.984940 -0.857590
O -2.260190 4.168690 -0.056620
H -1.290190 4.168690 -0.056620
H -2.583520 4.985440 -0.468050
O -2.762450 3.169940 -0.056620
H -1.792450 3.169940 -0.056620
H -3.085780 2.467980 0.529570
O 0.687880 4.885180 -0.056620
H 1.657880 4.885180 -0.056620
H 0.364550 5.613770 -0.609360
O -1.168310 -3.669310 -0.056620
H -0.198310 -3.669310 -0.056620
H -1.491640 -3.998110 -0.909990



