%chk=Optimization.chk
%mem=48GB
%NProcShared=28
#P PBE1PBE/6-311++G** Opt SCF=(MaxCycle=100)

Na1 P2 H26 C13 O3 F12

-1 1
Na 36.212468 30.249355 44.065163
O 37.122511 32.310852 44.650633
C 38.144801 32.537551 45.644160
C 38.396734 34.041829 45.620039
C 38.029384 34.424994 44.191415
C 36.838177 33.518326 43.934480
C 37.691501 31.990825 46.979135
H 39.039582 31.997453 45.314683
H 37.729558 34.541089 46.329125
H 39.424433 34.286484 45.887895
H 37.781614 35.479720 44.073986
H 38.846532 34.183611 43.507631
H 36.690395 33.269270 42.882761
H 35.908980 33.952853 44.316374
H 38.467538 32.152153 47.731109
H 36.779001 32.497798 47.304643
H 37.498740 30.918498 46.913688
O 35.202009 29.539703 46.043366
C 34.833912 29.978728 48.331091
C 35.655074 28.683113 48.168972
C 34.359478 30.297649 46.908031
C 35.442173 28.304142 46.706260
H 35.452969 30.783768 48.727358
H 33.986388 29.849488 49.004165
H 36.714298 28.869790 48.348654
H 35.332058 27.890866 48.844043
H 34.448579 31.345887 46.623866
H 33.319301 29.986863 46.755505
H 34.564863 27.652437 46.587793
H 36.307853 27.832367 46.242336
O 35.482739 28.293805 42.987439
C 35.523417 26.010209 43.471814
C 34.071861 26.393458 43.190163
C 36.271434 27.122050 42.761954
C 34.112809 27.921412 43.213418
H 35.787972 25.020887 43.099317
H 35.736153 26.046209 44.543087
H 33.774592 26.033749 42.202884
H 33.370035 25.992692 43.921015
H 36.337565 26.926410 41.684801
H 37.271370 27.305086 43.155238
H 33.812594 28.330432 44.181655
H 33.488161 28.373502 42.440094
P 39.425499 28.304426 45.358805
F 38.142702 29.176614 44.820338
F 38.477988 26.991760 45.434613
F 40.683074 27.445323 45.885218
F 39.795837 27.942235 43.827107
F 40.343640 29.630859 45.271279
F 39.022198 28.679038 46.878654
P 32.959764 32.180266 43.398565
F 32.397168 31.539652 42.025943
F 31.572850 32.975013 43.617592
F 34.372073 31.371665 43.175224
F 32.383503 30.915952 44.225530
F 33.563401 33.429230 42.569916
F 33.549896 32.806506 44.770379



